#
# *******************
# Calendar Parameters
# *******************
 &CAL_NML
 TheCalendar='gregorian',
# TheCalendar='model',
 startDate_1=19791001,
# startDate_1=19890101,
 startDate_2=000000,
 /
